# SFR package for  MODFLOW-NWT, generated by Flopy.
OPTIONS
REACHINPUT
TABFILES 1 80
LOSSFACTOR 1.0
END
10793 2440 0 0 86400.00000000 0.00010000 -1 0 1 
1 7 30 1 1 141.0 174.31 0.141242 0.1 0.00502966
1 8 29 1 2 141.0 154.33 0.128187 0.1 0.00502966
1 9 28 1 3 141.0 138.05 0.0913524 0.1 0.00502966
1 8 22 2 1 100.0 162.5 0.102125 0.1 0.00502966
1 9 22 2 2 121.0 152.28 0.11532 0.1 0.00502966
1 10 21 2 3 121.0 134.11 0.149002 0.1 0.00502966
1 11 21 2 4 100.0 117.16 0.153016 0.1 0.00502966
1 12 21 2 5 100.0 103.51 0.114488 0.1 0.00502966
1 8 27 3 1 100.0 150.61 0.155327 0.1 0.00502966
1 9 27 3 2 100.0 135.08 0.110587 0.1 0.00502966
1 10 27 4 1 171.0 128.5 0.0790866 0.1 0.00502966
1 11 27 4 2 121.0 119.35 0.0816191 0.1 0.00502966
1 12 26 4 3 121.0 109.2 0.0822028 0.1 0.00502966
1 13 26 4 4 100.0 99.94 0.0983829 0.1 0.00502966
1 14 26 4 5 100.0 89.52 0.104621 0.1 0.00502966
1 15 26 4 6 100.0 79.01 0.116411 0.1 0.00502966
1 10 41 5 1 141.0 157.89 0.113885 0.1 0.00502966
1 11 40 5 2 121.0 141.78 0.114496 0.1 0.00502966
1 12 40 5 3 100.0 130.27 0.136096 0.1 0.00502966
1 13 40 5 4 100.0 114.56 0.148237 0.1 0.00502966
1 14 40 5 5 100.0 100.62 0.118321 0.1 0.00502966
1 10 75 6 1 100.0 180.26 0.248972 0.1 0.270862
1 10 76 6 2 100.0 155.36 0.193422 0.1 0.270862
1 10 77 6 3 121.0 141.57 0.0954352 0.1 0.270862
1 11 78 6 4 141.0 134.08 0.0565956 0.1 0.270862
1 12 79 6 5 121.0 125.57 0.0535473 0.1 0.270862
1 13 79 6 6 121.0 120.88 0.0433478 0.1 0.270862
1 10 82 7 1 141.0 142.1 0.0443792 0.1 0.270862
1 11 81 7 2 121.0 135.82 0.0489235 0.1 0.270862
1 12 81 7 3 100.0 130.48 0.0693201 0.1 0.270862
1 13 81 7 4 121.0 121.96 0.0663064 0.1 0.270862
1 11 20 8 1 100.0 117.3 0.0983847 0.1 0.00502966
1 12 20 8 2 121.0 107.46 0.0958724 0.1 0.00502966
1 11 35 9 1 100.0 176.54 0.121945 0.1 0.00502966
1 12 35 9 2 121.0 164.35 0.127113 0.1 0.00502966
1 13 34 9 3 141.0 145.64 0.168268 0.1 0.00502966
1 14 33 9 4 141.0 116.75 0.182821 0.1 0.00502966
1 15 32 9 5 121.0 93.93 0.138461 0.1 0.00502966
1 16 32 9 6 121.0 82.37 0.0821626 0.1 0.00502966
1 17 31 9 7 121.0 75.47 0.0502885 0.1 0.00502966
1 17 30 9 8 100.0 70.3 0.0575118 0.1 0.00502966
1 17 29 9 9 100.0 63.97 0.0471083 0.1 0.00502966
1 17 28 9 10 121.0 60.87 0.0294341 0.1 0.00502966
1 18 27 9 11 141.0 56.93 0.0341335 0.1 0.00502966
1 11 57 10 1 100.0 217.45 0.0819774 0.1 0.00502966
1 11 58 10 2 121.0 209.26 0.0878062 0.1 0.00502966
1 12 59 10 3 121.0 196.02 0.0648059 0.1 0.00502966
1 12 60 10 4 121.0 192.42 0.0295489 0.1 0.00502966
1 13 61 10 5 121.0 189.15 0.0325216 0.1 0.00502966
1 13 62 10 6 121.0 184.96 0.0468624 0.1 0.00502966
1 14 63 10 7 141.0 177.63 0.0823017 0.1 0.00502966
1 12 30 11 1 141.0 148.78 0.0703686 0.1 0.00502966
1 13 29 11 2 141.0 138.83 0.105254 0.1 0.00502966
1 14 28 11 3 141.0 119.01 0.204142 0.1 0.00502966
1 15 27 11 4 141.0 81.09 0.186579 0.1 0.00502966
1 13 21 12 1 171.0 94.26 0.0904447 0.1 0.00502966
1 14 21 12 2 121.0 85.46 0.0832383 0.1 0.00502966
1 15 22 12 3 141.0 74.36 0.0544126 0.1 0.00502966
1 16 23 12 4 141.0 70.07 0.0468342 0.1 0.00502966
1 17 24 12 5 121.0 61.12 0.0495035 0.1 0.00502966
1 17 25 12 6 121.0 57.55 0.0316486 0.1 0.00502966
1 13 45 13 1 141.0 169.16 0.14741 0.1 0.00502966
1 14 44 13 2 121.0 148.31 0.162995 0.1 0.00502966
1 14 43 13 3 100.0 130.45 0.160142 0.1 0.00502966
1 14 42 13 4 100.0 116.28 0.137436 0.1 0.00502966
1 14 41 13 5 121.0 102.96 0.109243 0.1 0.00502966
1 13 63 14 1 141.0 180.9 0.0515067 0.1 0.00502966
1 14 64 14 2 121.0 173.62 0.0854586 0.1 0.00502966
1 14 66 15 1 141.0 191.0 0.162397 0.1 0.00502966
1 15 65 15 2 141.0 168.04 0.15304 0.1 0.00502966
1 15 78 16 1 141.0 154.78 0.256648 0.1 0.270862
1 14 79 16 2 141.0 118.48 0.159351 0.1 0.270862
1 14 80 17 1 192.0 115.25 0.0495161 0.1 0.270862
1 14 92 18 1 141.0 217.33 0.0559491 0.1 0.270862
1 15 91 18 2 121.0 209.42 0.0702881 0.1 0.270862
1 16 91 18 3 121.0 200.96 0.0939661 0.1 0.270862
1 14 105 19 1 100.0 239.77 0.0169625 0.1 0.270862
1 15 105 19 2 121.0 238.07 0.00903563 0.1 0.270862
1 16 104 19 3 141.0 237.92 0.00147333 0.1 0.270862
1 17 103 19 4 121.0 237.66 0.0235364 0.1 0.270862
1 18 103 19 5 121.0 233.13 0.0340192 0.1 0.270862
1 19 102 19 6 121.0 229.91 0.0462798 0.1 0.270862
1 19 101 19 7 121.0 222.93 0.091959 0.1 0.270862
1 20 100 19 8 121.0 206.79 0.103214 0.1 0.270862
1 20 99 19 9 100.0 197.56 0.110231 0.1 0.270862
1 20 98 19 10 121.0 184.74 0.130587 0.1 0.270862
1 21 97 19 11 121.0 165.94 0.0944513 0.1 0.270862
1 15 40 20 1 171.0 90.9 0.0596809 0.1 0.00502966
1 16 40 20 2 100.0 88.09 0.0374112 0.1 0.00502966
1 15 64 21 1 171.0 161.68 0.127854 0.1 0.00502966
1 15 80 22 1 192.0 109.71 0.0482565 0.1 0.270862
1 16 81 22 2 121.0 104.36 0.0347196 0.1 0.270862
1 17 81 22 3 121.0 101.2 0.0250751 0.1 0.270862
1 18 82 22 4 121.0 98.58 0.018939 0.1 0.270862
1 19 82 22 5 100.0 96.64 0.0264444 0.1 0.270862
1 20 82 22 6 100.0 93.29 0.037446 0.1 0.270862
1 21 82 22 7 100.0 89.16 0.0356947 0.1 0.270862
1 22 82 22 8 100.0 86.16 0.0242247 0.1 0.00247013
1 15 89 23 1 141.0 211.02 0.0746621 0.1 0.270862
1 16 90 23 2 121.0 200.46 0.107905 0.1 0.270862
1 15 97 24 1 141.0 217.63 0.110291 0.1 0.270862
1 16 96 24 2 141.0 202.03 0.146897 0.1 0.270862
1 17 95 24 3 141.0 176.08 0.15649 0.1 0.270862
1 16 14 25 1 141.0 102.5 0.0717672 0.1 0.00502966
1 17 13 25 2 141.0 92.36 0.0703899 0.1 0.00502966
1 18 12 25 3 141.0 82.6 0.0664143 0.1 0.00502966
1 19 11 25 4 121.0 73.57 0.0488456 0.1 0.00502966
1 20 11 25 5 100.0 70.18 0.0540745 0.1 0.00502966
1 21 11 25 6 100.0 62.76 0.05421 0.1 0.00502966
1 22 11 25 7 121.0 59.34 0.0311394 0.1 0.00502966
1 23 12 25 8 121.0 55.36 0.0404184 0.1 0.00502966
1 24 12 25 9 100.0 50.09 0.0653664 0.1 0.00502966
1 25 12 25 10 121.0 42.29 0.0665052 0.1 0.00502966
1 26 13 25 11 141.0 34.51 0.0671231 0.1 0.00502966
1 16 26 26 1 171.0 66.24 0.0900142 0.1 0.00502966
1 17 26 26 2 100.0 59.87 0.0629852 0.1 0.00502966
1 16 55 27 1 100.0 170.15 0.107624 0.1 0.00502966
1 16 54 27 2 100.0 159.38 0.10807 0.1 0.00502966
1 16 53 27 3 121.0 148.53 0.0805773 0.1 0.00502966
1 17 52 27 4 121.0 141.09 0.0424176 0.1 0.00502966
1 17 51 27 5 121.0 137.87 0.0436826 0.1 0.00502966
1 18 50 27 6 141.0 130.07 0.0711891 0.1 0.00502966
1 19 49 27 7 121.0 117.73 0.0977288 0.1 0.00502966
1 20 49 27 8 121.0 106.91 0.108459 0.1 0.00502966
1 21 48 27 9 141.0 91.54 0.102318 0.1 0.00502966
1 22 47 27 10 121.0 77.97 0.06774 0.1 0.00502966
1 23 47 27 11 121.0 74.02 0.0524797 0.1 0.00502966
1 24 46 27 12 121.0 64.76 0.057858 0.1 0.00502966
1 25 46 27 13 121.0 59.73 0.0490496 0.1 0.00502966
1 26 45 27 14 121.0 52.97 0.0652603 0.1 0.00502966
1 27 45 27 15 100.0 44.7 0.0569911 0.1 0.00502966
1 16 64 28 1 171.0 147.72 0.111785 0.1 0.00502966
1 17 64 28 2 100.0 139.52 0.0858757 0.1 0.00502966
1 18 64 28 3 121.0 130.54 0.0864474 0.1 0.00502966
1 19 63 28 4 121.0 118.79 0.0847662 0.1 0.00502966
1 20 63 28 5 121.0 110.15 0.104199 0.1 0.00502966
1 21 62 28 6 141.0 92.9 0.0944659 0.1 0.00502966
1 22 61 28 7 141.0 83.43 0.0664159 0.1 0.00502966
1 23 60 28 8 121.0 74.12 0.0683795 0.1 0.00502966
1 24 60 28 9 100.0 67.03 0.0615005 0.1 0.00502966
1 16 94 29 1 100.0 198.28 0.222387 0.1 0.270862
1 17 94 29 2 100.0 176.04 0.202556 0.1 0.270862
1 17 40 30 1 171.0 83.42 0.0779749 0.1 0.00502966
1 18 39 30 2 121.0 79.16 0.0387078 0.1 0.00502966
1 18 38 30 3 121.0 74.43 0.0701917 0.1 0.00502966
1 19 37 30 4 121.0 61.26 0.0589219 0.1 0.00502966
1 19 36 30 5 121.0 58.79 0.0275833 0.1 0.00502966
1 20 35 30 6 121.0 54.48 0.0295993 0.1 0.00502966
1 21 35 30 7 121.0 51.61 0.0390725 0.1 0.00502966
1 22 34 30 8 121.0 44.62 0.0369504 0.1 0.00502966
1 23 34 30 9 100.0 42.17 0.0192337 0.1 0.00502966
1 24 34 30 10 100.0 40.78 0.0123853 0.1 0.00502966
1 25 34 30 11 100.0 39.69 0.0183483 0.1 0.00502966
1 26 34 30 12 121.0 37.11 0.0302049 0.1 0.00502966
1 27 33 30 13 141.0 32.22 0.0293446 0.1 0.00502966
1 28 32 30 14 141.0 28.81 0.0225416 0.1 0.00502966
1 29 31 30 15 121.0 25.85 0.0231361 0.1 0.00502966
1 30 31 30 16 121.0 23.31 0.0237871 0.1 0.00247013
1 31 30 30 17 121.0 20.17 0.0220221 0.1 0.00247013
1 32 30 30 18 121.0 17.99 0.0206321 0.1 0.00247013
1 33 29 30 19 141.0 15.23 0.0178653 0.1 0.00247013
1 34 28 30 20 141.0 12.93 0.01119 0.1 0.00247013
1 17 45 31 1 100.0 146.11 0.126257 0.1 0.00502966
1 17 44 31 2 100.0 133.49 0.126178 0.1 0.00502966
1 17 43 31 3 100.0 120.88 0.103679 0.1 0.00502966
1 17 42 31 4 100.0 112.75 0.0848465 0.1 0.00502966
1 17 41 31 5 100.0 103.91 0.146664 0.1 0.00502966
1 17 90 32 1 171.0 186.35 0.16382 0.1 0.270862
1 18 90 32 2 121.0 165.81 0.183814 0.1 0.270862
1 19 89 32 3 121.0 142.87 0.159457 0.1 0.270862
1 20 89 32 4 100.0 127.2 0.136393 0.1 0.270862
1 21 89 32 5 100.0 115.59 0.0763917 0.1 0.270862
1 18 26 33 1 171.0 53.64 0.0345948 0.1 0.00502966
1 18 71 34 1 141.0 223.86 0.0979671 0.1 0.00502966
1 19 72 34 2 121.0 210.0 0.112772 0.1 0.270862
1 20 72 34 3 121.0 197.24 0.103848 0.1 0.270862
1 21 73 34 4 141.0 185.91 0.0838241 0.1 0.270862
1 22 74 34 5 121.0 173.54 0.1012 0.1 0.270862
1 23 74 34 6 121.0 162.05 0.114826 0.1 0.270862
1 24 73 34 7 121.0 145.82 0.0959538 0.1 0.270862
1 25 73 34 8 121.0 138.1 0.0660451 0.1 0.270862
1 26 72 34 9 121.0 130.33 0.0672005 0.1 0.270862
1 27 72 34 10 121.0 122.39 0.0743932 0.1 0.270862
1 28 71 34 11 141.0 112.58 0.0647579 0.1 0.270862
1 29 70 34 12 121.0 104.07 0.0665169 0.1 0.270862
1 30 70 34 13 100.0 96.78 0.0650213 0.1 0.270862
1 31 70 34 14 100.0 91.07 0.0505623 0.1 0.270862
1 32 70 34 15 100.0 86.67 0.0608248 0.1 0.270862
1 33 70 34 16 121.0 78.9 0.0720208 0.1 0.270862
1 34 69 34 17 141.0 69.52 0.0742167 0.1 0.270862
1 35 68 34 18 141.0 57.91 0.0699806 0.1 0.270862
1 36 67 34 19 141.0 49.72 0.0605531 0.1 0.270862
1 37 66 34 20 121.0 40.78 0.071245 0.1 0.00247013
1 37 65 34 21 100.0 32.86 0.0810941 0.1 0.00247013
1 37 64 34 22 100.0 24.56 0.0477772 0.1 0.00247013
1 37 63 34 23 121.0 23.3 0.0147177 0.1 0.270862
1 38 62 34 24 141.0 20.92 0.0180459 0.1 0.00247013
1 18 94 35 1 192.0 157.77 0.129005 0.1 0.270862
1 19 93 35 2 141.0 143.35 0.0860882 0.1 0.270862
1 19 26 36 1 171.0 51.22 0.0318974 0.1 0.00502966
1 20 26 36 2 121.0 48.07 0.0247788 0.1 0.00502966
1 21 25 36 3 121.0 45.52 0.0263966 0.1 0.00502966
1 22 25 36 4 121.0 42.04 0.0353624 0.1 0.00502966
1 23 24 36 5 121.0 36.95 0.0339821 0.1 0.00502966
1 24 24 36 6 100.0 33.75 0.0334747 0.1 0.00502966
1 25 24 36 7 100.0 30.26 0.0276005 0.1 0.00502966
1 26 24 36 8 100.0 28.23 0.0233015 0.1 0.00502966
1 27 24 36 9 100.0 25.6 0.0249091 0.1 0.00247013
1 28 24 36 10 100.0 23.25 0.0231545 0.1 0.00247013
1 29 24 36 11 100.0 20.97 0.0230611 0.1 0.00247013
1 30 24 36 12 100.0 18.64 0.0184303 0.1 0.00247013
1 31 24 36 13 100.0 17.28 0.0133465 0.1 0.00247013
1 32 24 36 14 100.0 15.97 0.0149005 0.1 0.00247013
1 33 24 36 15 100.0 14.3 0.0152481 0.1 0.00247013
1 34 24 36 16 100.0 12.92 0.0108018 0.1 0.00247013
1 35 24 36 17 100.0 12.14 0.00832985 0.1 0.00247013
1 36 24 36 18 100.0 11.26 0.0095254 0.1 0.00247013
1 37 24 36 19 100.0 10.23 0.00924578 0.1 0.00247013
1 38 24 36 20 100.0 9.41 0.00791761 0.1 0.00247013
1 39 24 36 21 100.0 8.65 0.00756642 0.1 0.00247013
1 40 24 36 22 100.0 7.89 0.0127522 0.1 0.00247013
1 41 24 36 23 121.0 6.1 0.00996229 0.1 0.00247013
1 20 92 37 1 171.0 133.42 0.0649565 0.1 0.270862
1 20 91 37 2 121.0 126.65 0.0670622 0.1 0.270862
1 21 90 37 3 141.0 117.25 0.0520799 0.1 0.270862
1 21 96 38 1 171.0 160.34 0.0638275 0.1 0.270862
1 21 95 38 2 121.0 152.7 0.0706686 0.1 0.270862
1 20 94 38 3 121.0 143.52 0.0558884 0.1 0.270862
1 20 93 38 4 100.0 138.83 0.0505226 0.1 0.270862
1 20 144 39 1 141.0 281.69 0.0803894 0.1 0.270862
1 21 143 39 2 141.0 270.33 0.0661379 0.1 0.270862
1 21 18 40 1 141.0 83.86 0.0636375 0.1 0.00502966
1 22 17 40 2 141.0 74.86 0.0853323 0.1 0.00502966
1 23 16 40 3 121.0 59.73 0.078641 0.1 0.00502966
1 24 16 40 4 121.0 54.7 0.0559464 0.1 0.00502966
1 25 15 40 5 141.0 45.99 0.0740406 0.1 0.00502966
1 26 14 40 6 121.0 33.76 0.0955024 0.1 0.00247013
1 22 88 41 1 171.0 111.38 0.0429531 0.1 0.270862
1 21 87 41 2 121.0 106.37 0.0522344 0.1 0.270862
1 21 86 41 3 100.0 99.47 0.0602923 0.1 0.270862
1 21 85 41 4 100.0 94.31 0.0410274 0.1 0.270862
1 21 84 41 5 121.0 91.26 0.0283132 0.1 0.00247013
1 22 83 41 6 141.0 87.56 0.0245785 0.1 0.270862
1 21 148 42 1 100.0 330.17 0.128576 0.1 0.270862
1 21 147 42 2 100.0 317.32 0.134974 0.1 0.270862
1 21 146 42 3 100.0 303.18 0.132811 0.1 0.270862
1 21 145 42 4 100.0 290.75 0.123434 0.1 0.270862
1 21 144 42 5 121.0 278.49 0.102813 0.1 0.270862
1 22 143 42 6 121.0 266.75 0.0603262 0.1 0.270862
1 22 54 43 1 141.0 123.02 0.0862236 0.1 0.00502966
1 23 55 43 2 141.0 110.82 0.0837106 0.1 0.00502966
1 24 56 43 3 141.0 99.34 0.0891264 0.1 0.00502966
1 25 57 43 4 121.0 85.61 0.123586 0.1 0.00502966
1 26 57 43 5 121.0 70.6 0.120986 0.1 0.00502966
1 27 58 43 6 121.0 57.61 0.0750943 0.1 0.00502966
1 28 58 43 7 121.0 51.78 0.0554196 0.1 0.00247013
1 22 89 44 1 171.0 111.92 0.0212705 0.1 0.270862
1 23 107 45 1 141.0 250.45 0.0650591 0.1 0.270862
1 22 106 45 2 121.0 241.25 0.0559976 0.1 0.270862
1 22 105 45 3 121.0 236.56 0.038039 0.1 0.270862
1 23 104 45 4 121.0 232.44 0.0575568 0.1 0.270862
1 23 103 45 5 100.0 223.84 0.0665266 0.1 0.270862
1 23 102 45 6 100.0 219.13 0.0515186 0.1 0.270862
1 23 101 45 7 100.0 213.54 0.0780842 0.1 0.270862
1 23 100 45 8 121.0 203.52 0.0738106 0.1 0.270862
1 22 99 45 9 121.0 196.81 0.0580448 0.1 0.270862
1 22 98 45 10 100.0 189.94 0.149472 0.1 0.270862
1 22 97 45 11 121.0 166.92 0.138372 0.1 0.270862
1 22 142 46 1 192.0 262.99 0.0346417 0.1 0.270862
1 23 141 46 2 121.0 259.52 0.0429415 0.1 0.270862
1 23 140 46 3 121.0 253.38 0.0581377 0.1 0.270862
1 24 139 46 4 141.0 245.62 0.0674638 0.1 0.270862
1 25 138 46 5 121.0 234.3 0.0541951 0.1 0.270862
1 25 137 46 6 100.0 231.46 0.0379673 0.1 0.270862
1 25 136 46 7 121.0 226.71 0.0465024 0.1 0.270862
1 26 135 46 8 121.0 220.28 0.0549689 0.1 0.270862
1 26 134 46 9 121.0 213.83 0.0525508 0.1 0.270862
1 23 40 47 1 141.0 93.42 0.0664882 0.1 0.00502966
1 24 39 47 2 121.0 84.02 0.0617008 0.1 0.00502966
1 25 39 47 3 121.0 78.33 0.0679731 0.1 0.00502966
1 26 38 47 4 141.0 67.15 0.103384 0.1 0.00502966
1 27 37 47 5 141.0 49.09 0.0871754 0.1 0.00502966
1 28 36 47 6 141.0 42.49 0.0595873 0.1 0.00502966
1 29 35 47 7 141.0 32.23 0.0600026 0.1 0.00502966
1 30 34 47 8 121.0 25.52 0.0352083 0.1 0.00502966
1 31 34 47 9 121.0 23.23 0.022209 0.1 0.00247013
1 32 33 47 10 121.0 20.19 0.0199502 0.1 0.00247013
1 33 33 47 11 100.0 18.35 0.0164727 0.1 0.00247013
1 34 33 47 12 100.0 16.9 0.0161511 0.1 0.00247013
1 35 33 47 13 100.0 15.12 0.0176726 0.1 0.00247013
1 36 33 47 14 121.0 13.36 0.0134966 0.1 0.00247013
1 23 67 48 1 100.0 178.05 0.176353 0.1 0.00502966
1 23 66 48 2 100.0 160.42 0.155215 0.1 0.00502966
1 23 65 48 3 100.0 147.01 0.150792 0.1 0.00502966
1 23 64 48 4 100.0 130.26 0.178583 0.1 0.00502966
1 23 63 48 5 121.0 111.29 0.173947 0.1 0.00502966
1 24 62 48 6 141.0 88.92 0.126304 0.1 0.00502966
1 25 61 48 7 121.0 75.57 0.11595 0.1 0.00502966
1 23 78 49 1 141.0 124.79 0.11749 0.1 0.270862
1 24 79 49 2 141.0 108.17 0.165716 0.1 0.270862
1 23 82 50 1 192.0 84.31 0.0242993 0.1 0.00247013
1 24 81 50 2 141.0 80.37 0.0226071 0.1 0.00247013
1 25 88 51 1 100.0 140.85 0.130075 0.1 0.270862
1 24 88 51 2 100.0 127.84 0.0995502 0.1 0.270862
1 23 88 51 3 100.0 120.94 0.0822887 0.1 0.270862
1 24 28 52 1 100.0 61.9 0.0418449 0.1 0.00502966
1 25 28 52 2 100.0 57.71 0.0366144 0.1 0.00502966
1 26 28 52 3 121.0 54.58 0.0525809 0.1 0.00502966
1 27 27 52 4 121.0 44.14 0.0811379 0.1 0.00502966
1 28 27 52 5 100.0 35.29 0.0754841 0.1 0.00502966
1 29 27 52 6 100.0 29.04 0.0582215 0.1 0.00502966
1 30 27 52 7 100.0 23.65 0.0522705 0.1 0.00502966
1 31 27 52 8 100.0 18.59 0.0381063 0.1 0.00247013
1 32 27 52 9 100.0 16.03 0.0244886 0.1 0.00247013
1 33 27 52 10 100.0 13.69 0.0169807 0.1 0.00247013
1 34 27 52 11 100.0 12.63 0.00811257 0.1 0.00247013
1 24 133 53 1 141.0 242.77 0.109232 0.1 0.270862
1 25 132 53 2 141.0 227.32 0.105537 0.1 0.270862
1 26 133 53 3 121.0 212.92 0.0750569 0.1 0.270862
1 25 60 54 1 150.0 61.82 0.0664101 0.1 0.00502966
1 26 60 54 2 100.0 58.02 0.0345188 0.1 0.00502966
1 27 60 54 3 100.0 54.91 0.030879 0.1 0.00502966
1 28 60 54 4 121.0 51.84 0.0418409 0.1 0.00247013
1 25 80 55 1 192.0 77.92 0.0648571 0.1 0.00247013
1 26 80 55 2 100.0 76.51 0.0217858 0.1 0.00247013
1 27 80 55 3 121.0 73.56 0.0242157 0.1 0.00247013
1 28 79 55 4 121.0 70.88 0.0265603 0.1 0.00247013
1 29 79 55 5 121.0 67.46 0.0267908 0.1 0.00247013
1 30 78 55 6 121.0 64.72 0.024211 0.1 0.00247013
1 25 123 56 1 100.0 274.28 0.0559298 0.1 0.270862
1 26 123 56 2 121.0 268.69 0.0542981 0.1 0.270862
1 27 122 56 3 121.0 261.24 0.0525303 0.1 0.270862
1 28 122 56 4 100.0 256.0 0.0760731 0.1 0.270862
1 29 122 56 5 121.0 246.02 0.12132 0.1 0.270862
1 30 121 56 6 141.0 225.82 0.129806 0.1 0.270862
1 31 120 56 7 141.0 209.31 0.112271 0.1 0.270862
1 26 93 57 1 100.0 180.32 0.0374785 0.1 0.270862
1 26 94 57 2 121.0 176.57 0.0286765 0.1 0.270862
1 27 95 57 3 121.0 173.76 0.0303033 0.1 0.270862
1 27 96 57 4 121.0 169.69 0.0441542 0.1 0.270862
1 28 97 57 5 121.0 162.96 0.0678288 0.1 0.270862
1 29 97 57 6 100.0 154.15 0.0967058 0.1 0.270862
1 30 97 57 7 100.0 143.62 0.0840722 0.1 0.270862
1 31 97 57 8 100.0 137.34 0.0709067 0.1 0.270862
1 32 97 57 9 121.0 129.44 0.0629231 0.1 0.270862
1 26 114 58 1 100.0 268.2 0.0839879 0.1 0.270862
1 26 115 58 2 121.0 259.8 0.0887732 0.1 0.270862
1 27 116 58 3 141.0 246.57 0.091394 0.1 0.270862
1 28 117 58 4 141.0 233.95 0.105712 0.1 0.270862
1 29 118 58 5 121.0 216.67 0.10257 0.1 0.270862
1 30 118 58 6 121.0 208.37 0.0685138 0.1 0.270862
1 31 119 58 7 121.0 200.73 0.0603646 0.1 0.270862
1 27 14 59 1 171.0 23.3 0.0751825 0.1 0.00247013
1 28 14 59 2 121.0 17.46 0.0454889 0.1 0.00247013
1 29 15 59 3 141.0 12.86 0.0202 0.1 0.00247013
1 30 14 59 4 121.0 11.75 0.0076242 0.1 0.00247013
1 27 49 60 1 100.0 73.76 0.10129 0.1 0.00502966
1 27 48 60 2 100.0 63.63 0.080437 0.1 0.00502966
1 27 47 60 3 100.0 57.67 0.0610009 0.1 0.00502966
1 27 46 60 4 121.0 51.43 0.0660564 0.1 0.00502966
1 27 127 61 1 141.0 253.04 0.0817955 0.1 0.270862
1 28 126 61 2 121.0 241.48 0.0910558 0.1 0.270862
1 29 126 61 3 100.0 231.44 0.101241 0.1 0.270862
1 30 126 61 4 100.0 221.23 0.0937518 0.1 0.270862
1 31 126 61 5 100.0 212.69 0.11846 0.1 0.270862
1 32 126 61 6 100.0 197.53 0.130617 0.1 0.270862
1 33 126 61 7 100.0 186.57 0.105904 0.1 0.270862
1 34 126 61 8 100.0 176.35 0.0815668 0.1 0.270862
1 27 133 62 1 192.0 208.09 0.0435856 0.1 0.270862
1 28 132 62 2 121.0 202.05 0.0417205 0.1 0.270862
1 29 132 62 3 100.0 197.98 0.0248662 0.1 0.270862
1 28 20 63 1 141.0 46.57 0.107548 0.1 0.00502966
1 29 19 63 2 141.0 31.36 0.0757849 0.1 0.00502966
1 30 18 63 3 121.0 25.14 0.0453428 0.1 0.00247013
1 30 17 63 4 100.0 20.47 0.0380568 0.1 0.00502966
1 30 16 63 5 100.0 17.53 0.03999 0.1 0.00502966
1 30 15 63 6 121.0 12.47 0.0304475 0.1 0.00502966
1 28 45 64 1 192.0 41.57 0.0434715 0.1 0.00502966
1 29 44 64 2 121.0 36.42 0.0352315 0.1 0.00502966
1 30 44 64 3 100.0 33.02 0.0351617 0.1 0.00502966
1 31 44 64 4 100.0 29.39 0.034317 0.1 0.00247013
1 32 44 64 5 100.0 26.15 0.033934 0.1 0.00247013
1 33 44 64 6 100.0 22.6 0.0340992 0.1 0.00247013
1 34 44 64 7 121.0 19.33 0.0255346 0.1 0.00247013
1 35 43 64 8 141.0 16.73 0.0134734 0.1 0.00247013
1 36 42 64 9 141.0 15.52 0.010592 0.1 0.00247013
1 37 41 64 10 141.0 13.73 0.0127865 0.1 0.00247013
1 38 40 64 11 121.0 11.91 0.0142655 0.1 0.00247013
1 28 150 65 1 141.0 296.89 0.163905 0.1 0.270862
1 29 149 65 2 121.0 273.71 0.137972 0.1 0.270862
1 30 149 65 3 100.0 262.5 0.100626 0.1 0.270862
1 31 149 65 4 121.0 253.58 0.0838721 0.1 0.270862
1 32 148 65 5 141.0 242.48 0.0650781 0.1 0.270862
1 28 155 66 1 141.0 309.38 0.143876 0.1 0.270862
1 29 154 66 2 141.0 289.03 0.11678 0.1 0.270862
1 29 59 67 1 192.0 44.35 0.0446972 0.1 0.00247013
1 30 59 67 2 100.0 40.68 0.0397067 0.1 0.00247013
1 31 59 67 3 121.0 36.41 0.0436358 0.1 0.00247013
1 32 58 67 4 121.0 30.11 0.0342757 0.1 0.00247013
1 33 58 67 5 100.0 27.71 0.03365 0.1 0.00247013
1 34 58 67 6 100.0 23.38 0.025294 0.1 0.00247013
1 35 58 67 7 121.0 22.65 0.013898 0.1 0.00247013
1 36 59 67 8 121.0 19.76 0.0245506 0.1 0.00247013
1 29 102 68 1 141.0 208.33 0.174221 0.1 0.270862
1 30 101 68 2 121.0 183.69 0.183898 0.1 0.270862
1 30 100 68 3 121.0 164.33 0.176758 0.1 0.270862
1 31 99 68 4 121.0 141.71 0.133425 0.1 0.270862
1 32 99 68 5 121.0 131.02 0.0824768 0.1 0.270862
1 29 135 69 1 100.0 239.66 0.154269 0.1 0.270862
1 29 134 69 2 121.0 224.23 0.13838 0.1 0.270862
1 30 133 69 3 121.0 206.91 0.110414 0.1 0.270862
1 29 143 70 1 100.0 303.61 0.0871935 0.1 0.270862
1 29 142 70 2 121.0 294.89 0.115317 0.1 0.270862
1 30 141 70 3 141.0 274.6 0.107102 0.1 0.270862
1 31 140 70 4 141.0 264.6 0.0593397 0.1 0.270862
1 32 139 70 5 141.0 257.82 0.0462461 0.1 0.270862
1 33 138 70 6 141.0 251.52 0.0631416 0.1 0.270862
1 34 137 70 7 121.0 239.96 0.0784022 0.1 0.270862
1 35 137 70 8 100.0 232.45 0.0702983 0.1 0.270862
1 36 137 70 9 121.0 225.9 0.0554816 0.1 0.270862
1 37 136 70 10 121.0 219.47 0.0460491 0.1 0.270862
1 38 136 70 11 100.0 214.81 0.0636102 0.1 0.270862
1 39 136 70 12 121.0 206.75 0.0636456 0.1 0.270862
1 40 135 70 13 121.0 200.14 0.0556584 0.1 0.270862
1 41 135 70 14 121.0 193.68 0.0652581 0.1 0.270862
1 42 134 70 15 141.0 184.36 0.0670471 0.1 0.270862
1 43 133 70 16 121.0 174.72 0.0634387 0.1 0.270862
1 44 133 70 17 121.0 168.85 0.0512937 0.1 0.270862
1 45 132 70 18 121.0 162.64 0.0620605 0.1 0.270862
1 45 131 70 19 121.0 154.62 0.0629406 0.1 0.270862
1 46 130 70 20 121.0 148.16 0.0502322 0.1 0.270862
1 46 129 70 21 121.0 142.68 0.0752646 0.1 0.270862
1 47 128 70 22 121.0 129.14 0.0796345 0.1 0.270862
1 47 127 70 23 121.0 122.79 0.0720802 0.1 0.270862
1 48 126 70 24 141.0 111.39 0.0807082 0.1 0.270862
1 49 125 70 25 121.0 99.96 0.098905 0.1 0.270862
1 50 125 70 26 100.0 88.26 0.103277 0.1 0.270862
1 51 125 70 27 100.0 79.31 0.0990061 0.1 0.270862
1 52 125 70 28 121.0 68.46 0.101306 0.1 0.270862
1 53 124 70 29 141.0 55.15 0.0631892 0.1 0.00247013
1 54 123 70 30 121.0 50.59 0.0578683 0.1 0.00247013
1 55 123 70 31 100.0 42.24 0.0514451 0.1 0.00247013
1 55 122 70 32 100.0 40.3 0.025577 0.1 0.00247013
1 30 158 71 1 141.0 322.65 0.0666484 0.1 0.270862
1 29 157 71 2 141.0 313.23 0.0774837 0.1 0.270862
1 30 156 71 3 121.0 300.74 0.078167 0.1 0.270862
1 30 155 71 4 100.0 293.94 0.087953 0.1 0.270862
1 30 154 71 5 100.0 283.15 0.0879342 0.1 0.270862
1 30 53 72 1 141.0 67.52 0.100712 0.1 0.00502966
1 31 52 72 2 141.0 53.28 0.0828321 0.1 0.00502966
1 32 51 72 3 121.0 44.09 0.0774988 0.1 0.00502966
1 33 51 72 4 121.0 35.09 0.0766854 0.1 0.00247013
1 34 50 72 5 141.0 26.13 0.0583266 0.1 0.00247013
1 35 49 72 6 141.0 18.59 0.0346821 0.1 0.00247013
1 36 50 72 7 121.0 16.32 0.0102085 0.1 0.00247013
1 37 50 72 8 121.0 15.89 0.00226117 0.1 0.00247013
1 30 110 73 1 100.0 267.6 0.131894 0.1 0.270862
1 31 110 73 2 100.0 254.41 0.140933 0.1 0.270862
1 32 110 73 3 100.0 239.41 0.165079 0.1 0.270862
1 33 110 73 4 100.0 221.39 0.159344 0.1 0.270862
1 34 110 73 5 121.0 207.54 0.109579 0.1 0.270862
1 35 109 73 6 141.0 196.14 0.147149 0.1 0.270862
1 36 108 73 7 121.0 165.92 0.196286 0.1 0.270862
1 37 108 73 8 121.0 148.03 0.149112 0.1 0.270862
1 38 107 73 9 121.0 131.16 0.104063 0.1 0.270862
1 39 107 73 10 121.0 122.28 0.10443 0.1 0.270862
1 40 106 73 11 141.0 105.3 0.110686 0.1 0.270862
1 41 105 73 12 121.0 90.97 0.0946702 0.1 0.00247013
1 41 104 73 13 121.0 82.17 0.0855403 0.1 0.270862
1 42 103 73 14 141.0 70.42 0.0561967 0.1 0.00247013
1 30 132 74 1 171.0 197.07 0.0552091 0.1 0.270862
1 31 131 74 2 121.0 189.05 0.0411197 0.1 0.270862
1 31 130 74 3 121.0 186.5 0.0290278 0.1 0.270862
1 32 129 74 4 141.0 181.89 0.034703 0.1 0.270862
1 33 128 74 5 141.0 176.68 0.0325143 0.1 0.270862
1 30 153 75 1 192.0 276.35 0.0744507 0.1 0.270862
1 31 152 75 2 121.0 266.44 0.0633961 0.1 0.270862
1 31 151 75 3 121.0 260.77 0.0517841 0.1 0.270862
1 32 150 75 4 121.0 254.14 0.0565056 0.1 0.270862
1 32 149 75 5 121.0 247.52 0.0632116 0.1 0.270862
1 33 148 75 6 121.0 239.0 0.0492645 0.1 0.270862
1 31 14 76 1 171.0 11.01 0.00983047 0.1 0.00247013
1 32 14 76 2 100.0 9.93 0.0107732 0.1 0.00247013
1 33 14 76 3 100.0 8.85 0.0114623 0.1 0.00247013
1 34 14 76 4 121.0 7.64 0.0135427 0.1 0.00247013
1 35 13 76 5 121.0 5.53 0.0190603 0.1 0.00247013
1 31 78 77 1 150.0 61.82 0.121452 0.1 0.00247013
1 32 78 77 2 121.0 61.28 0.00426111 0.1 0.00247013
1 33 77 77 3 121.0 60.83 0.0317617 0.1 0.00247013
1 34 77 77 4 121.0 54.8 0.0381209 0.1 0.00247013
1 35 76 77 5 121.0 52.55 0.0250332 0.1 0.00247013
1 36 76 77 6 100.0 49.13 0.0263619 0.1 0.00247013
1 37 76 77 7 121.0 47.28 0.022853 0.1 0.00247013
1 38 75 77 8 121.0 43.44 0.0230154 0.1 0.00247013
1 39 75 77 9 100.0 41.55 0.0295515 0.1 0.00247013
1 40 75 77 10 100.0 37.53 0.0480305 0.1 0.00247013
1 32 81 78 1 100.0 142.53 0.157954 0.1 0.00247013
1 32 80 78 2 121.0 126.74 0.15077 0.1 0.270862
1 31 79 78 3 121.0 106.43 0.294862 0.1 0.270862
1 31 103 79 1 141.0 191.41 0.187962 0.1 0.270862
1 32 102 79 2 121.0 164.83 0.194365 0.1 0.270862
1 33 102 79 3 121.0 144.76 0.166466 0.1 0.270862
1 34 101 79 4 141.0 126.07 0.106847 0.1 0.270862
1 35 100 79 5 141.0 114.54 0.0900676 0.1 0.270862
1 31 116 80 1 141.0 222.51 0.108933 0.1 0.270862
1 32 117 80 2 141.0 207.11 0.124492 0.1 0.270862
1 33 118 80 3 121.0 187.3 0.0923454 0.1 0.270862
1 32 46 81 1 100.0 40.85 0.0825527 0.1 0.00502966
1 33 46 81 2 100.0 32.59 0.0808842 0.1 0.00247013
1 34 46 81 3 100.0 24.67 0.0612382 0.1 0.00247013
1 35 46 81 4 100.0 20.35 0.0334837 0.1 0.00247013
1 36 46 81 5 100.0 17.98 0.0172426 0.1 0.00247013
1 37 46 81 6 100.0 16.9 0.021293 0.1 0.00247013
1 32 95 82 1 141.0 154.2 0.0767068 0.1 0.270862
1 33 96 82 2 121.0 143.35 0.11823 0.1 0.270862
1 33 97 82 3 121.0 127.38 0.122481 0.1 0.270862
1 32 119 83 1 171.0 194.06 0.0675359 0.1 0.270862
1 33 119 83 2 121.0 189.28 0.0466927 0.1 0.270862
1 33 64 84 1 100.0 70.1 0.17846 0.1 0.00502966
1 34 64 84 2 100.0 52.26 0.161716 0.1 0.00502966
1 35 64 84 3 121.0 37.76 0.116315 0.1 0.00502966
1 36 63 84 4 141.0 25.36 0.05569 0.1 0.00247013
1 37 62 84 5 121.0 22.01 0.0225028 0.1 0.00247013
1 37 61 84 6 100.0 19.88 0.0214076 0.1 0.00247013
1 37 60 84 7 100.0 17.73 0.0149273 0.1 0.00247013
1 33 87 85 1 100.0 179.14 0.207973 0.1 0.270862
1 34 87 85 2 100.0 158.34 0.162258 0.1 0.270862
1 35 87 85 3 121.0 146.68 0.0891729 0.1 0.270862
1 36 86 85 4 141.0 137.94 0.0615004 0.1 0.270862
1 37 85 85 5 141.0 129.29 0.0604893 0.1 0.270862
1 38 84 85 6 141.0 120.83 0.0594234 0.1 0.270862
1 39 83 85 7 121.0 112.48 0.0597091 0.1 0.270862
1 39 82 85 8 100.0 106.45 0.0676432 0.1 0.270862
1 39 81 85 9 100.0 98.95 0.0683517 0.1 0.270862
1 39 80 85 10 121.0 92.78 0.0711596 0.1 0.270862
1 40 79 85 11 121.0 81.38 0.0916064 0.1 0.270862
1 40 78 85 12 100.0 71.12 0.117058 0.1 0.270862
1 40 77 85 13 100.0 57.97 0.110977 0.1 0.270862
1 40 76 85 14 121.0 48.92 0.105277 0.1 0.270862
1 33 98 86 1 192.0 122.81 0.0636445 0.1 0.270862
1 33 129 87 1 141.0 179.55 0.0299572 0.1 0.270862
1 34 128 87 2 121.0 175.31 0.0280443 0.1 0.270862
1 33 147 88 1 192.0 235.18 0.045739 0.1 0.270862
1 34 146 88 2 141.0 228.6 0.0509971 0.1 0.270862
1 35 145 88 3 141.0 220.75 0.0552382 0.1 0.270862
1 36 144 88 4 141.0 212.97 0.0456625 0.1 0.270862
1 37 143 88 5 141.0 207.84 0.0462616 0.1 0.270862
1 38 142 88 6 141.0 199.89 0.0455711 0.1 0.270862
1 33 156 89 1 100.0 316.6 0.123721 0.1 0.270862
1 33 155 89 2 100.0 304.23 0.112061 0.1 0.270862
1 33 154 89 3 121.0 294.19 0.100616 0.1 0.270862
1 34 153 89 4 121.0 279.93 0.108677 0.1 0.270862
1 34 152 89 5 121.0 268.28 0.107912 0.1 0.270862
1 35 151 89 6 141.0 254.24 0.109429 0.1 0.270862
1 36 150 89 7 141.0 237.33 0.113676 0.1 0.270862
1 34 37 90 1 100.0 18.65 0.00645491 0.1 0.00247013
1 34 36 90 2 121.0 18.01 0.00806312 0.1 0.00247013
1 35 35 90 3 141.0 16.64 0.0161296 0.1 0.00247013
1 36 34 90 4 121.0 13.45 0.0183896 0.1 0.00247013
1 34 61 91 1 100.0 45.39 0.137684 0.1 0.00502966
1 35 61 91 2 100.0 31.62 0.121668 0.1 0.00247013
1 36 61 91 3 100.0 21.05 0.0693936 0.1 0.00247013
1 36 60 91 4 121.0 17.74 0.0195574 0.1 0.00247013
1 34 98 92 1 171.0 115.33 0.0631266 0.1 0.270862
1 35 98 92 2 121.0 110.7 0.0588735 0.1 0.270862
1 34 104 93 1 141.0 161.54 0.131559 0.1 0.270862
1 35 103 93 2 141.0 142.93 0.123017 0.1 0.270862
1 36 102 93 3 141.0 126.74 0.0820793 0.1 0.270862
1 37 101 93 4 121.0 119.72 0.176767 0.1 0.270862
1 38 101 93 5 100.0 89.33 0.1745 0.1 0.00247013
1 34 118 94 1 171.0 182.84 0.0503789 0.1 0.270862
1 35 118 94 2 100.0 177.27 0.0469765 0.1 0.270862
1 36 118 94 3 100.0 173.44 0.050951 0.1 0.270862
1 34 127 95 1 192.0 172.7 0.0222132 0.1 0.270862
1 35 7 96 1 100.0 5.96 0.00712403 0.1 0.00247013
1 36 7 96 2 121.0 5.25 0.00702765 0.1 0.00247013
1 37 8 96 3 141.0 4.27 0.0106697 0.1 0.00247013
1 38 9 96 4 141.0 2.23 0.00811413 0.1 0.00247013
1 35 27 97 1 192.0 12.07 0.00611582 0.1 0.00247013
1 36 26 97 2 141.0 11.17 0.00691764 0.1 0.00247013
1 37 25 97 3 121.0 10.11 0.00657999 0.1 0.00247013
1 38 25 97 4 100.0 9.54 0.00789171 0.1 0.00247013
1 39 25 97 5 121.0 8.53 0.00846408 0.1 0.00247013
1 40 26 97 6 121.0 7.57 0.00920637 0.1 0.00247013
1 35 41 98 1 100.0 21.42 0.0707015 0.1 0.00247013
1 36 41 98 2 121.0 14.35 0.0420398 0.1 0.00247013
1 37 40 98 3 141.0 12.46 0.0141608 0.1 0.00247013
1 35 116 99 1 141.0 207.46 0.17252 0.1 0.270862
1 36 117 99 2 141.0 183.06 0.142766 0.1 0.270862
1 35 126 100 1 192.0 170.26 0.0264715 0.1 0.270862
1 36 125 100 2 121.0 168.3 0.0147921 0.1 0.270862
1 35 144 101 1 141.0 216.01 0.0396361 0.1 0.270862
1 36 143 101 2 141.0 210.41 0.0455523 0.1 0.270862
1 37 142 101 3 141.0 203.13 0.0432487 0.1 0.270862
1 38 141 101 4 121.0 198.18 0.0336566 0.1 0.270862
1 36 13 102 1 221.0 14.342 0.0056122 0.1 0.164603
1 36 12 102 2 121.0 14.132 0.00218475 0.1 0.164603
1 37 11 102 3 141.0 13.822 0.00218011 0.1 0.164603
1 41 20 103 1 171.0 16.232 0.0024752 0.1 0.164603
1 41 19 103 2 121.0 15.852 0.00240516 0.1 0.164603
1 40 18 103 3 141.0 15.712 0.00148442 0.1 0.164603
1 39 17 103 4 141.0 15.422 0.00206194 0.1 0.164603